650005
ChemmineR-0508140217XD

 49 52  0     1  0  0  0  0  0999 V2000
    3.7247   -1.1087    0.0000 O   0  0  0  0  0  0  0  0  0  0  0  0
    2.7765    0.5338    0.0000 O   0  0  0  0  0  0  0  0  0  0  0  0
    2.7071    4.1387    0.0000 O   0  0  0  0  0  0  0  0  0  0  0  0
    5.3978   -1.5570    0.0000 N   0  0  0  0  0  0  0  0  0  0  0  0
    3.2247    2.2069    0.0000 N   0  0  0  0  0  0  0  0  0  0  0  0
    6.6815    1.1161    0.0000 C   0  0  3  0  0  0  0  0  0  0  0  0
    6.9404    2.0820    0.0000 C   0  0  3  0  0  0  0  0  0  0  0  0
    4.9495    0.1161    0.0000 C   0  0  3  0  0  0  0  0  0  0  0  0
    4.4495    0.9821    0.0000 C   0  0  3  0  0  0  0  0  0  0  0  0
    6.2038    3.0646    0.0000 C   0  0  0  0  0  0  0  0  0  0  0  0
    8.5135    0.3573    0.0000 C   0  0  0  0  0  0  0  0  0  0  0  0
    8.7723    1.3232    0.0000 C   0  0  0  0  0  0  0  0  0  0  0  0
    4.6907   -0.8498    0.0000 C   0  0  0  0  0  0  0  0  0  0  0  0
    3.4836    1.2409    0.0000 C   0  0  0  0  0  0  0  0  0  0  0  0
    5.1390   -2.5229    0.0000 C   0  0  0  0  0  0  0  0  0  0  0  0
    4.2054   -2.8812    0.0000 C   0  0  0  0  0  0  0  0  0  0  0  0
    5.7683   -3.3000    0.0000 C   0  0  0  0  0  0  0  0  0  0  0  0
    4.2577   -3.8799    0.0000 C   0  0  0  0  0  0  0  0  0  0  0  0
    5.2236   -4.1387    0.0000 C   0  0  0  0  0  0  0  0  0  0  0  0
    2.2588    2.4657    0.0000 C   0  0  0  0  0  0  0  0  0  0  0  0
    3.9318    2.9140    0.0000 C   0  0  0  0  0  0  0  0  0  0  0  0
    2.0000    3.4316    0.0000 C   0  0  0  0  0  0  0  0  0  0  0  0
    3.6730    3.8799    0.0000 C   0  0  0  0  0  0  0  0  0  0  0  0
    6.7221    0.4974    0.0000 H   0  0  0  0  0  0  0  0  0  0  0  0
    6.9475    1.4620    0.0000 H   0  0  0  0  0  0  0  0  0  0  0  0
    5.4414   -0.2614    0.0000 H   0  0  0  0  0  0  0  0  0  0  0  0
    4.4018    1.6003    0.0000 H   0  0  0  0  0  0  0  0  0  0  0  0
    6.5216    3.5970    0.0000 H   0  0  0  0  0  0  0  0  0  0  0  0
    5.5906    3.1566    0.0000 H   0  0  0  0  0  0  0  0  0  0  0  0
    8.7877   -0.1988    0.0000 H   0  0  0  0  0  0  0  0  0  0  0  0
    9.3284    1.5974    0.0000 H   0  0  0  0  0  0  0  0  0  0  0  0
    5.7454   -2.3940    0.0000 H   0  0  0  0  0  0  0  0  0  0  0  0
    5.9966   -1.3965    0.0000 H   0  0  0  0  0  0  0  0  0  0  0  0
    4.0449   -2.2824    0.0000 H   0  0  0  0  0  0  0  0  0  0  0  0
    3.5930   -2.9782    0.0000 H   0  0  0  0  0  0  0  0  0  0  0  0
    6.2501   -3.6902    0.0000 H   0  0  0  0  0  0  0  0  0  0  0  0
    6.2067   -2.8616    0.0000 H   0  0  0  0  0  0  0  0  0  0  0  0
    3.6386   -3.8474    0.0000 H   0  0  0  0  0  0  0  0  0  0  0  0
    4.1607   -4.4922    0.0000 H   0  0  0  0  0  0  0  0  0  0  0  0
    5.0014   -4.7175    0.0000 H   0  0  0  0  0  0  0  0  0  0  0  0
    5.7761   -4.4202    0.0000 H   0  0  0  0  0  0  0  0  0  0  0  0
    1.6412    2.4116    0.0000 H   0  0  0  0  0  0  0  0  0  0  0  0
    2.2048    1.8480    0.0000 H   0  0  0  0  0  0  0  0  0  0  0  0
    4.2875    2.4061    0.0000 H   0  0  0  0  0  0  0  0  0  0  0  0
    4.4938    3.1760    0.0000 H   0  0  0  0  0  0  0  0  0  0  0  0
    1.6444    3.9395    0.0000 H   0  0  0  0  0  0  0  0  0  0  0  0
    1.4381    3.1696    0.0000 H   0  0  0  0  0  0  0  0  0  0  0  0
    4.2907    3.9339    0.0000 H   0  0  0  0  0  0  0  0  0  0  0  0
    3.7271    4.4975    0.0000 H   0  0  0  0  0  0  0  0  0  0  0  0
  1 13  2  0  0  0  0
  2 14  2  0  0  0  0
  3 22  1  0  0  0  0
  3 23  1  0  0  0  0
  4 13  1  0  0  0  0
  4 15  1  0  0  0  0
  4 33  1  0  0  0  0
  5 14  1  0  0  0  0
  5 20  1  0  0  0  0
  5 21  1  0  0  0  0
  6  8  1  0  0  0  0
  6 10  1  0  0  0  0
  6 11  1  0  0  0  0
  6 24  1  0  0  0  0
  7  9  1  0  0  0  0
  7 10  1  0  0  0  0
  7 12  1  0  0  0  0
  7 25  1  0  0  0  0
  8  9  1  0  0  0  0
  8 13  1  0  0  0  0
  8 26  1  0  0  0  0
  9 14  1  0  0  0  0
  9 27  1  0  0  0  0
 10 28  1  0  0  0  0
 10 29  1  0  0  0  0
 11 12  2  0  0  0  0
 11 30  1  0  0  0  0
 12 31  1  0  0  0  0
 15 16  1  0  0  0  0
 15 17  1  0  0  0  0
 15 32  1  0  0  0  0
 16 18  1  0  0  0  0
 16 34  1  0  0  0  0
 16 35  1  0  0  0  0
 17 19  1  0  0  0  0
 17 36  1  0  0  0  0
 17 37  1  0  0  0  0
 18 19  1  0  0  0  0
 18 38  1  0  0  0  0
 18 39  1  0  0  0  0
 19 40  1  0  0  0  0
 19 41  1  0  0  0  0
 20 22  1  0  0  0  0
 20 42  1  0  0  0  0
 20 43  1  0  0  0  0
 21 23  1  0  0  0  0
 21 44  1  0  0  0  0
 21 45  1  0  0  0  0
 22 46  1  0  0  0  0
 22 47  1  0  0  0  0
 23 48  1  0  0  0  0
 23 49  1  0  0  0  0
M  END
> <PUBCHEM_COMPOUND_CID>
650005

> <PUBCHEM_COMPOUND_CANONICALIZED>
1

> <PUBCHEM_CACTVS_COMPLEXITY>
506

> <PUBCHEM_CACTVS_HBOND_ACCEPTOR>
3

> <PUBCHEM_CACTVS_HBOND_DONOR>
1

> <PUBCHEM_CACTVS_ROTATABLE_BOND>
3

> <PUBCHEM_CACTVS_SUBSKEYS>
AAADceB7MAAAAAAAAAAAAAAAAAAAAZMEAAAuQAAAAAAAAAAAAAAAHgAQAAAADSjhgAYAAAPABACIACFSEAAAAAAgAAAICIEIAAgCABIAgQAHAAAAlgCYAAMdiACOgAAAAAAAAAAAAAAAAAAAAQAACAAAAA==

> <PUBCHEM_IUPAC_OPENEYE_NAME>
N-cyclopentyl-3-(morpholine-4-carbonyl)bicyclo[2.2.1]hept-5-ene-2-carboxamide

> <PUBCHEM_IUPAC_CAS_NAME>
N-cyclopentyl-3-[4-morpholinyl(oxo)methyl]-2-bicyclo[2.2.1]hept-5-enecarboxamide

> <PUBCHEM_IUPAC_NAME>
N-cyclopentyl-3-(morpholine-4-carbonyl)bicyclo[2.2.1]hept-5-ene-2-carboxamide

> <PUBCHEM_IUPAC_SYSTEMATIC_NAME>
N-cyclopentyl-3-morpholin-4-ylcarbonyl-bicyclo[2.2.1]hept-5-ene-2-carboxamide

> <PUBCHEM_IUPAC_TRADITIONAL_NAME>
N-cyclopentyl-3-(morpholine-4-carbonyl)bicyclo[2.2.1]hept-5-ene-2-carboxamide

> <PUBCHEM_NIST_INCHI>
InChI=1S/C18H26N2O3/c21-17(19-14-3-1-2-4-14)15-12-5-6-13(11-12)16(15)18(22)20-7-9-23-10-8-20/h5-6,12-16H,1-4,7-11H2,(H,19,21)

> <PUBCHEM_NIST_INCHIKEY>
ONHUITOWOIOJSB-UHFFFAOYSA-N

> <PUBCHEM_XLOGP3_AA>
0.9

> <PUBCHEM_EXACT_MASS>
318.194343

> <PUBCHEM_MOLECULAR_FORMULA>
C18H26N2O3

> <PUBCHEM_MOLECULAR_WEIGHT>
318.41064

> <PUBCHEM_OPENEYE_CAN_SMILES>
C1CCC(C1)NC(=O)C2C3CC(C2C(=O)N4CCOCC4)C=C3

> <PUBCHEM_OPENEYE_ISO_SMILES>
C1CCC(C1)NC(=O)C2C3CC(C2C(=O)N4CCOCC4)C=C3

> <PUBCHEM_CACTVS_TPSA>
58.6

> <PUBCHEM_MONOISOTOPIC_WEIGHT>
318.194343

> <PUBCHEM_TOTAL_CHARGE>
0

> <PUBCHEM_HEAVY_ATOM_COUNT>
23

> <PUBCHEM_ATOM_DEF_STEREO_COUNT>
0

> <PUBCHEM_ATOM_UDEF_STEREO_COUNT>
4

> <PUBCHEM_BOND_DEF_STEREO_COUNT>
0

> <PUBCHEM_BOND_UDEF_STEREO_COUNT>
0

> <PUBCHEM_ISOTOPIC_ATOM_COUNT>
0

> <PUBCHEM_COMPONENT_COUNT>
1

> <PUBCHEM_CACTVS_TAUTO_COUNT>
2

> <PUBCHEM_COORDINATE_TYPE>
1 __ 3

> <PUBCHEM_BONDANNOTATIONS>
6  10  3 __ 7  12  3 __ 8  13  3 __ 9  14  3 __ 

$$$$
650011
ChemmineR-0508140217XD

 66 70  0     1  0  0  0  0  0999 V2000
    6.8474   -2.9073    0.0000 O   0  0  0  0  0  0  0  0  0  0  0  0
    2.5000    2.3327    0.0000 O   0  0  0  0  0  0  0  0  0  0  0  0
    6.8474    0.0927    0.0000 N   0  0  3  0  0  0  0  0  0  0  0  0
    5.1724    2.1805    0.0000 N   0  0  0  0  0  0  0  0  0  0  0  0
    6.7904    2.1805    0.0000 N   0  0  0  0  0  0  0  0  0  0  0  0
    8.5794   -2.9073    0.0000 N   0  0  0  0  0  0  0  0  0  0  0  0
    5.4814    3.1316    0.0000 N   0  0  0  0  0  0  0  0  0  0  0  0
    6.4814    3.1316    0.0000 N   0  0  0  0  0  0  0  0  0  0  0  0
    5.9814    0.5927    0.0000 C   0  0  3  0  0  0  0  0  0  0  0  0
    7.7134    0.5927    0.0000 C   0  0  0  0  0  0  0  0  0  0  0  0
    6.8474   -0.9073    0.0000 C   0  0  0  0  0  0  0  0  0  0  0  0
    5.1153    0.0927    0.0000 C   0  0  0  0  0  0  0  0  0  0  0  0
    5.9814    1.5927    0.0000 C   0  0  0  0  0  0  0  0  0  0  0  0
    7.7134    1.5927    0.0000 C   0  0  0  0  0  0  0  0  0  0  0  0
    7.7134   -1.4073    0.0000 C   0  0  0  0  0  0  0  0  0  0  0  0
    5.1153   -0.9073    0.0000 C   0  0  0  0  0  0  0  0  0  0  0  0
    8.5794   -0.9073    0.0000 C   0  0  0  0  0  0  0  0  0  0  0  0
    8.5794    2.0927    0.0000 C   0  0  0  0  0  0  0  0  0  0  0  0
    7.7134   -2.4073    0.0000 C   0  0  0  0  0  0  0  0  0  0  0  0
    9.4455   -1.4073    0.0000 C   0  0  0  0  0  0  0  0  0  0  0  0
    4.2213    1.8715    0.0000 C   0  0  0  0  0  0  0  0  0  0  0  0
    9.4455   -2.4073    0.0000 C   0  0  0  0  0  0  0  0  0  0  0  0
   10.3394   -2.9419    0.0000 C   0  0  0  0  0  0  0  0  0  0  0  0
    8.5794    3.0927    0.0000 C   0  0  0  0  0  0  0  0  0  0  0  0
    9.4455    1.5927    0.0000 C   0  0  0  0  0  0  0  0  0  0  0  0
   10.3394   -0.8726    0.0000 C   0  0  0  0  0  0  0  0  0  0  0  0
    3.4782    2.5406    0.0000 C   0  0  0  0  0  0  0  0  0  0  0  0
   11.2455   -2.4281    0.0000 C   0  0  0  0  0  0  0  0  0  0  0  0
   11.2455   -1.3865    0.0000 C   0  0  0  0  0  0  0  0  0  0  0  0
   10.3278   -3.9419    0.0000 C   0  0  0  0  0  0  0  0  0  0  0  0
    9.4455    3.5927    0.0000 C   0  0  0  0  0  0  0  0  0  0  0  0
   10.3115    2.0927    0.0000 C   0  0  0  0  0  0  0  0  0  0  0  0
    3.5827    3.5351    0.0000 C   0  0  0  0  0  0  0  0  0  0  0  0
   10.3115    3.0927    0.0000 C   0  0  0  0  0  0  0  0  0  0  0  0
    2.6691    3.9419    0.0000 C   0  0  0  0  0  0  0  0  0  0  0  0
    2.0000    3.1987    0.0000 C   0  0  0  0  0  0  0  0  0  0  0  0
    6.5183    0.9027    0.0000 H   0  0  0  0  0  0  0  0  0  0  0  0
    7.9255    0.0101    0.0000 H   0  0  0  0  0  0  0  0  0  0  0  0
    8.3240    0.7004    0.0000 H   0  0  0  0  0  0  0  0  0  0  0  0
    6.2368   -0.7996    0.0000 H   0  0  0  0  0  0  0  0  0  0  0  0
    6.6353   -1.4899    0.0000 H   0  0  0  0  0  0  0  0  0  0  0  0
    4.9033    0.6753    0.0000 H   0  0  0  0  0  0  0  0  0  0  0  0
    4.5048   -0.0149    0.0000 H   0  0  0  0  0  0  0  0  0  0  0  0
    7.5014    2.1753    0.0000 H   0  0  0  0  0  0  0  0  0  0  0  0
    7.1028    1.4851    0.0000 H   0  0  0  0  0  0  0  0  0  0  0  0
    4.4953   -0.9073    0.0000 H   0  0  0  0  0  0  0  0  0  0  0  0
    5.1153   -1.5273    0.0000 H   0  0  0  0  0  0  0  0  0  0  0  0
    5.7353   -0.9073    0.0000 H   0  0  0  0  0  0  0  0  0  0  0  0
    8.5794   -0.2873    0.0000 H   0  0  0  0  0  0  0  0  0  0  0  0
    3.7327    1.4898    0.0000 H   0  0  0  0  0  0  0  0  0  0  0  0
    4.5124    1.3241    0.0000 H   0  0  0  0  0  0  0  0  0  0  0  0
    8.5794   -3.5273    0.0000 H   0  0  0  0  0  0  0  0  0  0  0  0
    8.0425    3.4027    0.0000 H   0  0  0  0  0  0  0  0  0  0  0  0
    9.4455    0.9727    0.0000 H   0  0  0  0  0  0  0  0  0  0  0  0
   10.3322   -0.2527    0.0000 H   0  0  0  0  0  0  0  0  0  0  0  0
   11.7812   -2.7402    0.0000 H   0  0  0  0  0  0  0  0  0  0  0  0
   11.7812   -1.0744    0.0000 H   0  0  0  0  0  0  0  0  0  0  0  0
    9.7079   -3.9347    0.0000 H   0  0  0  0  0  0  0  0  0  0  0  0
   10.3207   -4.5618    0.0000 H   0  0  0  0  0  0  0  0  0  0  0  0
   10.9478   -3.9490    0.0000 H   0  0  0  0  0  0  0  0  0  0  0  0
    9.4455    4.2127    0.0000 H   0  0  0  0  0  0  0  0  0  0  0  0
   10.8484    1.7827    0.0000 H   0  0  0  0  0  0  0  0  0  0  0  0
    4.1196    3.8451    0.0000 H   0  0  0  0  0  0  0  0  0  0  0  0
   10.8484    3.4027    0.0000 H   0  0  0  0  0  0  0  0  0  0  0  0
    2.5402    4.5483    0.0000 H   0  0  0  0  0  0  0  0  0  0  0  0
    1.3834    3.2635    0.0000 H   0  0  0  0  0  0  0  0  0  0  0  0
  1 19  2  0  0  0  0
  2 27  1  0  0  0  0
  2 36  1  0  0  0  0
  3  9  1  0  0  0  0
  3 10  1  0  0  0  0
  3 11  1  0  0  0  0
  4  7  1  0  0  0  0
  4 13  1  0  0  0  0
  4 21  1  0  0  0  0
  5  8  1  0  0  0  0
  5 13  2  0  0  0  0
  6 19  1  0  0  0  0
  6 22  1  0  0  0  0
  6 52  1  0  0  0  0
  7  8  2  0  0  0  0
  9 12  1  0  0  0  0
  9 13  1  0  0  0  0
  9 37  1  0  0  0  0
 10 14  1  0  0  0  0
 10 38  1  0  0  0  0
 10 39  1  0  0  0  0
 11 15  1  0  0  0  0
 11 40  1  0  0  0  0
 11 41  1  0  0  0  0
 12 16  1  0  0  0  0
 12 42  1  0  0  0  0
 12 43  1  0  0  0  0
 14 18  1  0  0  0  0
 14 44  1  0  0  0  0
 14 45  1  0  0  0  0
 15 17  2  0  0  0  0
 15 19  1  0  0  0  0
 16 46  1  0  0  0  0
 16 47  1  0  0  0  0
 16 48  1  0  0  0  0
 17 20  1  0  0  0  0
 17 49  1  0  0  0  0
 18 24  2  0  0  0  0
 18 25  1  0  0  0  0
 20 22  1  0  0  0  0
 20 26  2  0  0  0  0
 21 27  1  0  0  0  0
 21 50  1  0  0  0  0
 21 51  1  0  0  0  0
 22 23  2  0  0  0  0
 23 28  1  0  0  0  0
 23 30  1  0  0  0  0
 24 31  1  0  0  0  0
 24 53  1  0  0  0  0
 25 32  2  0  0  0  0
 25 54  1  0  0  0  0
 26 29  1  0  0  0  0
 26 55  1  0  0  0  0
 27 33  2  0  0  0  0
 28 29  2  0  0  0  0
 28 56  1  0  0  0  0
 29 57  1  0  0  0  0
 30 58  1  0  0  0  0
 30 59  1  0  0  0  0
 30 60  1  0  0  0  0
 31 34  2  0  0  0  0
 31 61  1  0  0  0  0
 32 34  1  0  0  0  0
 32 62  1  0  0  0  0
 33 35  1  0  0  0  0
 33 63  1  0  0  0  0
 34 64  1  0  0  0  0
 35 36  2  0  0  0  0
 35 65  1  0  0  0  0
 36 66  1  0  0  0  0
M  END
> <PUBCHEM_COMPOUND_CID>
650011

> <PUBCHEM_COMPOUND_CANONICALIZED>
1

> <PUBCHEM_CACTVS_COMPLEXITY>
756

> <PUBCHEM_CACTVS_HBOND_ACCEPTOR>
6

> <PUBCHEM_CACTVS_HBOND_DONOR>
1

> <PUBCHEM_CACTVS_ROTATABLE_BOND>
10

> <PUBCHEM_CACTVS_SUBSKEYS>
AAADceB7sAAAAAAAAAAAAAAAAAAAAWJAAAAwYIAAAAAAAACB9AAAHgAYAAAADCzhmwYz1IfIBECqAq9y9ACCCAMloIAdyAG+TMiOZjrE/buXOSjkxBPY6YeYkcIOAAACAAACAAAAAAQAAAQAAAAAAAAAAA==

> <PUBCHEM_IUPAC_OPENEYE_NAME>
3-[[1-[1-(2-furylmethyl)tetrazol-5-yl]propyl-phenethyl-amino]methyl]-8-methyl-1H-quinolin-2-one

> <PUBCHEM_IUPAC_CAS_NAME>
3-[[1-[1-(2-furanylmethyl)-5-tetrazolyl]propyl-phenethylamino]methyl]-8-methyl-1H-quinolin-2-one

> <PUBCHEM_IUPAC_NAME>
3-[[1-[1-(furan-2-ylmethyl)tetrazol-5-yl]propyl-phenethylamino]methyl]-8-methyl-1H-quinolin-2-one

> <PUBCHEM_IUPAC_SYSTEMATIC_NAME>
3-[[1-[1-(furan-2-ylmethyl)-1,2,3,4-tetrazol-5-yl]propyl-phenethyl-amino]methyl]-8-methyl-1H-quinolin-2-one

> <PUBCHEM_IUPAC_TRADITIONAL_NAME>
3-[[1-[1-(2-furfuryl)tetrazol-5-yl]propyl-phenethyl-amino]methyl]-8-methyl-carbostyril

> <PUBCHEM_NIST_INCHI>
InChI=1S/C28H30N6O2/c1-3-25(27-30-31-32-34(27)19-24-13-8-16-36-24)33(15-14-21-10-5-4-6-11-21)18-23-17-22-12-7-9-20(2)26(22)29-28(23)35/h4-13,16-17,25H,3,14-15,18-19H2,1-2H3,(H,29,35)

> <PUBCHEM_NIST_INCHIKEY>
AYOKKHOJNMLLPS-UHFFFAOYSA-N

> <PUBCHEM_XLOGP3_AA>
4.3

> <PUBCHEM_EXACT_MASS>
482.243024

> <PUBCHEM_MOLECULAR_FORMULA>
C28H30N6O2

> <PUBCHEM_MOLECULAR_WEIGHT>
482.5768

> <PUBCHEM_OPENEYE_CAN_SMILES>
CCC(C1=NN=NN1CC2=CC=CO2)N(CCC3=CC=CC=C3)CC4=CC5=C(C(=CC=C5)C)NC4=O

> <PUBCHEM_OPENEYE_ISO_SMILES>
CCC(C1=NN=NN1CC2=CC=CO2)N(CCC3=CC=CC=C3)CC4=CC5=C(C(=CC=C5)C)NC4=O

> <PUBCHEM_CACTVS_TPSA>
89.1

> <PUBCHEM_MONOISOTOPIC_WEIGHT>
482.243024

> <PUBCHEM_TOTAL_CHARGE>
0

> <PUBCHEM_HEAVY_ATOM_COUNT>
36

> <PUBCHEM_ATOM_DEF_STEREO_COUNT>
0

> <PUBCHEM_ATOM_UDEF_STEREO_COUNT>
1

> <PUBCHEM_BOND_DEF_STEREO_COUNT>
0

> <PUBCHEM_BOND_UDEF_STEREO_COUNT>
0

> <PUBCHEM_ISOTOPIC_ATOM_COUNT>
0

> <PUBCHEM_COMPONENT_COUNT>
1

> <PUBCHEM_CACTVS_TAUTO_COUNT>
2

> <PUBCHEM_COORDINATE_TYPE>
1 __ 3

> <PUBCHEM_BONDANNOTATIONS>
15  17  8 __ 15  19  8 __ 17  20  8 __ 18  24  8 __ 18  25  8 __ 2  27  8 __ 2  36  8 __ 20  22  8 __ 20  26  8 __ 22  23  8 __ 23  28  8 __ 24  31  8 __ 25  32  8 __ 26  29  8 __ 27  33  8 __ 28  29  8 __ 31  34  8 __ 32  34  8 __ 33  35  8 __ 35  36  8 __ 4  13  8 __ 4  7  8 __ 5  13  8 __ 5  8  8 __ 6  19  8 __ 6  22  8 __ 7  8  8 __ 9  12  3 __ 

$$$$
650037
ChemmineR-0508140217XD

 27 28  0     0  0  0  0  0  0999 V2000
    2.0000   -3.2500    0.0000 F   0  0  0  0  0  0  0  0  0  0  0  0
    3.7320   -4.2500    0.0000 F   0  0  0  0  0  0  0  0  0  0  0  0
    5.4641   -0.2500    0.0000 O   0  0  0  0  0  0  0  0  0  0  0  0
    3.7320   -0.2500    0.0000 N   0  0  0  0  0  0  0  0  0  0  0  0
    3.7320    1.7500    0.0000 N   0  0  0  0  0  0  0  0  0  0  0  0
    5.4641    2.7500    0.0000 N   0  0  0  0  0  0  0  0  0  0  0  0
    3.7320   -1.2500    0.0000 C   0  0  0  0  0  0  0  0  0  0  0  0
    2.8660   -1.7500    0.0000 C   0  0  0  0  0  0  0  0  0  0  0  0
    4.5981   -1.7500    0.0000 C   0  0  0  0  0  0  0  0  0  0  0  0
    4.5981    1.2500    0.0000 C   0  0  0  0  0  0  0  0  0  0  0  0
    4.5981    0.2500    0.0000 C   0  0  0  0  0  0  0  0  0  0  0  0
    2.8660   -2.7500    0.0000 C   0  0  0  0  0  0  0  0  0  0  0  0
    4.5981   -2.7500    0.0000 C   0  0  0  0  0  0  0  0  0  0  0  0
    3.7320   -3.2500    0.0000 C   0  0  0  0  0  0  0  0  0  0  0  0
    4.5981    3.2500    0.0000 C   0  0  0  0  0  0  0  0  0  0  0  0
    5.4641    1.7500    0.0000 C   0  0  0  0  0  0  0  0  0  0  0  0
    3.7320    2.7500    0.0000 C   0  0  0  0  0  0  0  0  0  0  0  0
    4.5981    4.2500    0.0000 C   0  0  0  0  0  0  0  0  0  0  0  0
    3.1951    0.0600    0.0000 H   0  0  0  0  0  0  0  0  0  0  0  0
    2.3291   -1.4400    0.0000 H   0  0  0  0  0  0  0  0  0  0  0  0
    5.1350   -1.4400    0.0000 H   0  0  0  0  0  0  0  0  0  0  0  0
    5.1350   -3.0600    0.0000 H   0  0  0  0  0  0  0  0  0  0  0  0
    6.0010    1.4400    0.0000 H   0  0  0  0  0  0  0  0  0  0  0  0
    3.1951    3.0600    0.0000 H   0  0  0  0  0  0  0  0  0  0  0  0
    5.2181    4.2500    0.0000 H   0  0  0  0  0  0  0  0  0  0  0  0
    4.5981    4.8700    0.0000 H   0  0  0  0  0  0  0  0  0  0  0  0
    3.9781    4.2500    0.0000 H   0  0  0  0  0  0  0  0  0  0  0  0
  1 12  1  0  0  0  0
  2 14  1  0  0  0  0
  3 11  2  0  0  0  0
  4  7  1  0  0  0  0
  4 11  1  0  0  0  0
  4 19  1  0  0  0  0
  5 10  2  0  0  0  0
  5 17  1  0  0  0  0
  6 15  1  0  0  0  0
  6 16  2  0  0  0  0
  7  8  2  0  0  0  0
  7  9  1  0  0  0  0
  8 12  1  0  0  0  0
  8 20  1  0  0  0  0
  9 13  2  0  0  0  0
  9 21  1  0  0  0  0
 10 11  1  0  0  0  0
 10 16  1  0  0  0  0
 12 14  2  0  0  0  0
 13 14  1  0  0  0  0
 13 22  1  0  0  0  0
 15 17  2  0  0  0  0
 15 18  1  0  0  0  0
 16 23  1  0  0  0  0
 17 24  1  0  0  0  0
 18 25  1  0  0  0  0
 18 26  1  0  0  0  0
 18 27  1  0  0  0  0
M  END
> <PUBCHEM_COMPOUND_CID>
650037

> <PUBCHEM_COMPOUND_CANONICALIZED>
1

> <PUBCHEM_CACTVS_COMPLEXITY>
303

> <PUBCHEM_CACTVS_HBOND_ACCEPTOR>
5

> <PUBCHEM_CACTVS_HBOND_DONOR>
1

> <PUBCHEM_CACTVS_ROTATABLE_BOND>
2

> <PUBCHEM_CACTVS_SUBSKEYS>
AAADccBzIYAAAAAAAAAAAAAAAAAAAAAAAAA8QAAAAAAAAAABwAAAHwAQAAAACAjBlgw+wJLIEACoATV3VACCgCQ3EiAI2AG4dMgIYGrA0bGUIIhglADIyMcQAAAAAAAAAAAAAAAAAAAAAAAAAAAAAAAAAA==

> <PUBCHEM_IUPAC_OPENEYE_NAME>
N-(3,4-difluorophenyl)-5-methyl-pyrazine-2-carboxamide

> <PUBCHEM_IUPAC_CAS_NAME>
N-(3,4-difluorophenyl)-5-methyl-2-pyrazinecarboxamide

> <PUBCHEM_IUPAC_NAME>
N-(3,4-difluorophenyl)-5-methylpyrazine-2-carboxamide

> <PUBCHEM_IUPAC_SYSTEMATIC_NAME>
N-[3,4-bis(fluoranyl)phenyl]-5-methyl-pyrazine-2-carboxamide

> <PUBCHEM_IUPAC_TRADITIONAL_NAME>
N-(3,4-difluorophenyl)-5-methyl-pyrazinamide

> <PUBCHEM_NIST_INCHI>
InChI=1S/C12H9F2N3O/c1-7-5-16-11(6-15-7)12(18)17-8-2-3-9(13)10(14)4-8/h2-6H,1H3,(H,17,18)

> <PUBCHEM_NIST_INCHIKEY>
VHDWOGYOEMMUHA-UHFFFAOYSA-N

> <PUBCHEM_XLOGP3_AA>
1.6

> <PUBCHEM_EXACT_MASS>
249.071368

> <PUBCHEM_MOLECULAR_FORMULA>
C12H9F2N3O

> <PUBCHEM_MOLECULAR_WEIGHT>
249.216166

> <PUBCHEM_OPENEYE_CAN_SMILES>
CC1=NC=C(N=C1)C(=O)NC2=CC(=C(C=C2)F)F

> <PUBCHEM_OPENEYE_ISO_SMILES>
CC1=NC=C(N=C1)C(=O)NC2=CC(=C(C=C2)F)F

> <PUBCHEM_CACTVS_TPSA>
54.9

> <PUBCHEM_MONOISOTOPIC_WEIGHT>
249.071368

> <PUBCHEM_TOTAL_CHARGE>
0

> <PUBCHEM_HEAVY_ATOM_COUNT>
18

> <PUBCHEM_ATOM_DEF_STEREO_COUNT>
0

> <PUBCHEM_ATOM_UDEF_STEREO_COUNT>
0

> <PUBCHEM_BOND_DEF_STEREO_COUNT>
0

> <PUBCHEM_BOND_UDEF_STEREO_COUNT>
0

> <PUBCHEM_ISOTOPIC_ATOM_COUNT>
0

> <PUBCHEM_COMPONENT_COUNT>
1

> <PUBCHEM_CACTVS_TAUTO_COUNT>
7

> <PUBCHEM_COORDINATE_TYPE>
1 __ 3

> <PUBCHEM_BONDANNOTATIONS>
10  16  8 __ 12  14  8 __ 13  14  8 __ 15  17  8 __ 5  10  8 __ 5  17  8 __ 6  15  8 __ 6  16  8 __ 7  8  8 __ 7  9  8 __ 8  12  8 __ 9  13  8 __ 

$$$$
650105
ChemmineR-0508140217XD

 54 57  0     0  0  0  0  0  0999 V2000
    2.8660    4.7500    0.0000 O   0  0  0  0  0  0  0  0  0  0  0  0
    2.0000   -2.7500    0.0000 O   0  0  0  0  0  0  0  0  0  0  0  0
    3.7320    1.2500    0.0000 N   0  0  0  0  0  0  0  0  0  0  0  0
    3.7320    3.2500    0.0000 N   0  0  0  0  0  0  0  0  0  0  0  0
    3.7320   -2.7500    0.0000 N   0  0  0  0  0  0  0  0  0  0  0  0
    2.0000   -5.7500    0.0000 N   0  0  0  0  0  0  0  0  0  0  0  0
    2.8660    1.7500    0.0000 C   0  0  0  0  0  0  0  0  0  0  0  0
    4.5981    1.7500    0.0000 C   0  0  0  0  0  0  0  0  0  0  0  0
    2.8660    2.7500    0.0000 C   0  0  0  0  0  0  0  0  0  0  0  0
    4.5981    2.7500    0.0000 C   0  0  0  0  0  0  0  0  0  0  0  0
    3.7320    0.2500    0.0000 C   0  0  0  0  0  0  0  0  0  0  0  0
    3.7320    4.2500    0.0000 C   0  0  0  0  0  0  0  0  0  0  0  0
    4.5981   -0.2500    0.0000 C   0  0  0  0  0  0  0  0  0  0  0  0
    2.8660   -0.2500    0.0000 C   0  0  0  0  0  0  0  0  0  0  0  0
    4.5981    4.7500    0.0000 C   0  0  0  0  0  0  0  0  0  0  0  0
    4.5981   -1.2500    0.0000 C   0  0  0  0  0  0  0  0  0  0  0  0
    2.8660   -1.2500    0.0000 C   0  0  0  0  0  0  0  0  0  0  0  0
    3.7320   -1.7500    0.0000 C   0  0  0  0  0  0  0  0  0  0  0  0
    5.4641    4.2500    0.0000 C   0  0  0  0  0  0  0  0  0  0  0  0
    4.5981    5.7500    0.0000 C   0  0  0  0  0  0  0  0  0  0  0  0
    6.3301    4.7500    0.0000 C   0  0  0  0  0  0  0  0  0  0  0  0
    5.4641    6.2500    0.0000 C   0  0  0  0  0  0  0  0  0  0  0  0
    6.3301    5.7500    0.0000 C   0  0  0  0  0  0  0  0  0  0  0  0
    7.1962    6.2500    0.0000 C   0  0  0  0  0  0  0  0  0  0  0  0
    2.8660   -3.2500    0.0000 C   0  0  0  0  0  0  0  0  0  0  0  0
    2.8660   -4.2500    0.0000 C   0  0  0  0  0  0  0  0  0  0  0  0
    3.7320   -4.7500    0.0000 C   0  0  0  0  0  0  0  0  0  0  0  0
    2.0000   -4.7500    0.0000 C   0  0  0  0  0  0  0  0  0  0  0  0
    3.7320   -5.7500    0.0000 C   0  0  0  0  0  0  0  0  0  0  0  0
    2.8660   -6.2500    0.0000 C   0  0  0  0  0  0  0  0  0  0  0  0
    2.2554    1.8577    0.0000 H   0  0  0  0  0  0  0  0  0  0  0  0
    2.6540    1.1674    0.0000 H   0  0  0  0  0  0  0  0  0  0  0  0
    4.8101    1.1674    0.0000 H   0  0  0  0  0  0  0  0  0  0  0  0
    5.2087    1.8577    0.0000 H   0  0  0  0  0  0  0  0  0  0  0  0
    2.6540    3.3326    0.0000 H   0  0  0  0  0  0  0  0  0  0  0  0
    2.2554    2.6423    0.0000 H   0  0  0  0  0  0  0  0  0  0  0  0
    5.2087    2.6423    0.0000 H   0  0  0  0  0  0  0  0  0  0  0  0
    4.8101    3.3326    0.0000 H   0  0  0  0  0  0  0  0  0  0  0  0
    5.1350    0.0600    0.0000 H   0  0  0  0  0  0  0  0  0  0  0  0
    2.3291    0.0600    0.0000 H   0  0  0  0  0  0  0  0  0  0  0  0
    5.1350   -1.5600    0.0000 H   0  0  0  0  0  0  0  0  0  0  0  0
    2.3291   -1.5600    0.0000 H   0  0  0  0  0  0  0  0  0  0  0  0
    5.4641    3.6300    0.0000 H   0  0  0  0  0  0  0  0  0  0  0  0
    4.0611    6.0600    0.0000 H   0  0  0  0  0  0  0  0  0  0  0  0
    6.8671    4.4400    0.0000 H   0  0  0  0  0  0  0  0  0  0  0  0
    5.4641    6.8700    0.0000 H   0  0  0  0  0  0  0  0  0  0  0  0
    4.2690   -3.0600    0.0000 H   0  0  0  0  0  0  0  0  0  0  0  0
    7.5062    5.7131    0.0000 H   0  0  0  0  0  0  0  0  0  0  0  0
    7.7331    6.5600    0.0000 H   0  0  0  0  0  0  0  0  0  0  0  0
    6.8862    6.7869    0.0000 H   0  0  0  0  0  0  0  0  0  0  0  0
    4.2690   -4.4400    0.0000 H   0  0  0  0  0  0  0  0  0  0  0  0
    1.4631   -4.4400    0.0000 H   0  0  0  0  0  0  0  0  0  0  0  0
    4.2690   -6.0600    0.0000 H   0  0  0  0  0  0  0  0  0  0  0  0
    2.8660   -6.8700    0.0000 H   0  0  0  0  0  0  0  0  0  0  0  0
  1 12  2  0  0  0  0
  2 25  2  0  0  0  0
  3  7  1  0  0  0  0
  3  8  1  0  0  0  0
  3 11  1  0  0  0  0
  4  9  1  0  0  0  0
  4 10  1  0  0  0  0
  4 12  1  0  0  0  0
  5 18  1  0  0  0  0
  5 25  1  0  0  0  0
  5 47  1  0  0  0  0
  6 28  1  0  0  0  0
  6 30  2  0  0  0  0
  7  9  1  0  0  0  0
  7 31  1  0  0  0  0
  7 32  1  0  0  0  0
  8 10  1  0  0  0  0
  8 33  1  0  0  0  0
  8 34  1  0  0  0  0
  9 35  1  0  0  0  0
  9 36  1  0  0  0  0
 10 37  1  0  0  0  0
 10 38  1  0  0  0  0
 11 13  2  0  0  0  0
 11 14  1  0  0  0  0
 12 15  1  0  0  0  0
 13 16  1  0  0  0  0
 13 39  1  0  0  0  0
 14 17  2  0  0  0  0
 14 40  1  0  0  0  0
 15 19  2  0  0  0  0
 15 20  1  0  0  0  0
 16 18  2  0  0  0  0
 16 41  1  0  0  0  0
 17 18  1  0  0  0  0
 17 42  1  0  0  0  0
 19 21  1  0  0  0  0
 19 43  1  0  0  0  0
 20 22  2  0  0  0  0
 20 44  1  0  0  0  0
 21 23  2  0  0  0  0
 21 45  1  0  0  0  0
 22 23  1  0  0  0  0
 22 46  1  0  0  0  0
 23 24  1  0  0  0  0
 24 48  1  0  0  0  0
 24 49  1  0  0  0  0
 24 50  1  0  0  0  0
 25 26  1  0  0  0  0
 26 27  1  0  0  0  0
 26 28  2  0  0  0  0
 27 29  2  0  0  0  0
 27 51  1  0  0  0  0
 28 52  1  0  0  0  0
 29 30  1  0  0  0  0
 29 53  1  0  0  0  0
 30 54  1  0  0  0  0
M  END
> <PUBCHEM_COMPOUND_CID>
650105

> <PUBCHEM_COMPOUND_CANONICALIZED>
1

> <PUBCHEM_CACTVS_COMPLEXITY>
574

> <PUBCHEM_CACTVS_HBOND_ACCEPTOR>
4

> <PUBCHEM_CACTVS_HBOND_DONOR>
1

> <PUBCHEM_CACTVS_ROTATABLE_BOND>
4

> <PUBCHEM_CACTVS_SUBSKEYS>
AAADceB7sAAAAAAAAAAAAAAAAAAAAAAAAAA8eIEAAAAAAAAB0AAAHgAQAAAADAjBmgQ+wJPIEACoAjV3VACCgCA1AiAI2CE4ZNgIYPrA1ZGUIYhglgDIyccYiQCOQACAAAAAAACAAQAAAAAAAAAAAAAAAA==

> <PUBCHEM_IUPAC_OPENEYE_NAME>
N-[4-[4-(4-methylbenzoyl)piperazin-1-yl]phenyl]pyridine-3-carboxamide

> <PUBCHEM_IUPAC_CAS_NAME>
N-[4-[4-[(4-methylphenyl)-oxomethyl]-1-piperazinyl]phenyl]-3-pyridinecarboxamide

> <PUBCHEM_IUPAC_NAME>
N-[4-[4-(4-methylbenzoyl)piperazin-1-yl]phenyl]pyridine-3-carboxamide

> <PUBCHEM_IUPAC_SYSTEMATIC_NAME>
N-[4-[4-(4-methylphenyl)carbonylpiperazin-1-yl]phenyl]pyridine-3-carboxamide

> <PUBCHEM_IUPAC_TRADITIONAL_NAME>
N-[4-(4-p-toluoylpiperazino)phenyl]nicotinamide

> <PUBCHEM_NIST_INCHI>
InChI=1S/C24H24N4O2/c1-18-4-6-19(7-5-18)24(30)28-15-13-27(14-16-28)22-10-8-21(9-11-22)26-23(29)20-3-2-12-25-17-20/h2-12,17H,13-16H2,1H3,(H,26,29)

> <PUBCHEM_NIST_INCHIKEY>
WKSPREILIFCNBW-UHFFFAOYSA-N

> <PUBCHEM_XLOGP3>
3.1

> <PUBCHEM_EXACT_MASS>
400.189926

> <PUBCHEM_MOLECULAR_FORMULA>
C24H24N4O2

> <PUBCHEM_MOLECULAR_WEIGHT>
400.47296

> <PUBCHEM_OPENEYE_CAN_SMILES>
CC1=CC=C(C=C1)C(=O)N2CCN(CC2)C3=CC=C(C=C3)NC(=O)C4=CN=CC=C4

> <PUBCHEM_OPENEYE_ISO_SMILES>
CC1=CC=C(C=C1)C(=O)N2CCN(CC2)C3=CC=C(C=C3)NC(=O)C4=CN=CC=C4

> <PUBCHEM_CACTVS_TPSA>
65.5

> <PUBCHEM_MONOISOTOPIC_WEIGHT>
400.189926

> <PUBCHEM_TOTAL_CHARGE>
0

> <PUBCHEM_HEAVY_ATOM_COUNT>
30

> <PUBCHEM_ATOM_DEF_STEREO_COUNT>
0

> <PUBCHEM_ATOM_UDEF_STEREO_COUNT>
0

> <PUBCHEM_BOND_DEF_STEREO_COUNT>
0

> <PUBCHEM_BOND_UDEF_STEREO_COUNT>
0

> <PUBCHEM_ISOTOPIC_ATOM_COUNT>
0

> <PUBCHEM_COMPONENT_COUNT>
1

> <PUBCHEM_CACTVS_TAUTO_COUNT>
6

> <PUBCHEM_COORDINATE_TYPE>
1 __ 3

> <PUBCHEM_BONDANNOTATIONS>
11  13  8 __ 11  14  8 __ 13  16  8 __ 14  17  8 __ 15  19  8 __ 15  20  8 __ 16  18  8 __ 17  18  8 __ 19  21  8 __ 20  22  8 __ 21  23  8 __ 22  23  8 __ 26  27  8 __ 26  28  8 __ 27  29  8 __ 29  30  8 __ 6  28  8 __ 6  30  8 __ 

$$$$
